LAMMPS (20 Nov 2019)
echo both

units		metal
atom_style	atomic

variable temperature equal 2000
variable low_temperature equal 300
variable high_temperature equal 3000
variable pressure equal 0

neigh_modify    delay 10 every 1

lattice fcc 3.61 origin 0.0 0.0 0.0 orient x 1 0 0 orient y 0 1 0 orient z 0 0 1
Lattice spacing in x,y,z = 3.61 3.61 3.61
region box block -5 5 -5 5 -5 5 units lattice
create_box 1 box
Created orthogonal box = (-18.05 -18.05 -18.05) to (18.05 18.05 18.05)
create_atoms 1 box
Created 4000 atoms

pair_style eam/alloy
pair_coeff * * copper.eam.alloy Cu
Reading potential file copper.eam.alloy with DATE: 2018-03-30

# equilibrate
min_style cg
min_modify dmax 1.0e-2 line quadratic
fix min all box/relax aniso 0.0 vmax 0.01
minimize 0.0 1.0e-4 10000 10000
  update every 1 steps, delay 0 steps, check yes
Step Temp E_pair E_mol TotEng Press Volume
0            0   -14159.633            0   -14159.633    5734.0397    47045.881
Loop time of 0.627083 on 1 procs for 7 steps with 4000 atoms

Minimization stats:
  Stopping criterion = linesearch alpha is zero
  Energy initial, next-to-last, final =
  Force two-norm initial, final = 291.63 2.21606
  Force max component initial, final = 168.373 1.27944
  Final line search alpha, max atom move = 1.86346e-09 2.38419e-09
  Iterations, force evaluations = 7 63

unfix min

region liquidRegion block INF INF 0 INF INF INF
group liquid region liquidRegion
2000 atoms in group liquid
region solidRegion block INF INF INF 0 INF INF
group solid region solidRegion
2000 atoms in group solid

thermo 100
velocity liquid create 3000 123456 dist gaussian
velocity solid create 300 123456 dist gaussian
fix nptLiquid liquid npt temp 3000 3000 0.10000000000000000555 iso 0 0 $(1000.0*dt)
fix nptLiquid liquid npt temp 3000 3000 0.10000000000000000555 iso 0 0 1
fix nptSolid solid npt temp 300 300 0.10000000000000000555 iso 0 0 $(1000.0*dt)
fix nptSolid solid npt temp 300 300 0.10000000000000000555 iso 0 0 1
fix recenterFix all recenter INIT INIT INIT
dump twoPhase all atom 100 two_phase.dump
reset_timestep 0
run 5000
Step Temp E_pair E_mol TotEng Press Volume
0    1649.5874   -14159.979            0   -13307.289    19323.745    47238.584
Averages over the last 26 of 51 rows, steps 2500 to 5000:
Temp E_pair E_mol TotEng Press Volume
2980.15 -11915.5 0 -10375 -199.436 67724.9
Loop time of 46.92 on 1 procs for 5000 steps with 4000 atoms

unfix nptLiquid
unfix nptSolid
unfix recenterFix
undump twoPhase

fix nptFix all npt temp 2000 2000 0.10000000000000000555 iso 0 0 $(1000.0*dt)
fix nptFix all npt temp 2000 2000 0.10000000000000000555 iso 0 0 1
fix recenterFix all recenter INIT INIT INIT
dump equilibration all atom 100 equil_2000.dump
reset_timestep 0
run 20000
Step Temp E_pair E_mol TotEng Press Volume
0     2960.836    -11848.11            0    -10317.62    503.55056    70863.575
Averages over the last 41 of 82 rows, steps 4100 to 8100:
Temp E_pair E_mol TotEng Press Volume
1996.32 -12469.4 0 -11437.5 169.222 55784.6
